Version 4
SHEET 1 3556 3252
WIRE -1632 432 -2016 432
WIRE -2016 512 -2016 432
WIRE -1632 528 -1632 432
WIRE -1632 704 -1632 608
WIRE -800 704 -1632 704
WIRE -256 704 -800 704
WIRE 208 704 -256 704
WIRE 736 704 208 704
WIRE 1376 704 736 704
WIRE 2048 704 1376 704
WIRE 2768 704 2048 704
WIRE 3392 704 2768 704
WIRE -1632 736 -1632 704
WIRE -1632 864 -1632 816
WIRE -1632 864 -1808 864
WIRE -1632 880 -1632 864
WIRE -1536 928 -1632 928
WIRE -1808 960 -1808 864
WIRE -1680 960 -1808 960
WIRE -1632 1040 -1632 976
WIRE -1536 1040 -1536 928
WIRE -1536 1040 -1632 1040
WIRE -1312 1040 -1536 1040
WIRE -1632 1056 -1632 1040
WIRE -1536 1088 -1632 1088
WIRE -1808 1120 -1808 960
WIRE -1680 1120 -1808 1120
WIRE -1632 1184 -1632 1136
WIRE -1632 1184 -1888 1184
WIRE -1536 1184 -1536 1088
WIRE -1536 1184 -1632 1184
WIRE -1312 1200 -1312 1040
WIRE -1232 1200 -1312 1200
WIRE -800 1216 -800 704
WIRE -256 1216 -256 704
WIRE 208 1216 208 704
WIRE 736 1216 736 704
WIRE -1632 1232 -1632 1184
WIRE -1552 1232 -1632 1232
WIRE 1376 1232 1376 704
WIRE 2048 1248 2048 704
WIRE 2768 1248 2768 704
WIRE 3392 1248 3392 704
WIRE -688 1264 -800 1264
WIRE -144 1264 -256 1264
WIRE 320 1264 208 1264
WIRE 848 1264 736 1264
WIRE -1552 1280 -1696 1280
WIRE 1488 1280 1376 1280
WIRE 2160 1296 2048 1296
WIRE 2880 1296 2768 1296
WIRE 3504 1296 3392 1296
WIRE -1312 1312 -1312 1200
WIRE -1312 1312 -1504 1312
WIRE -880 1312 -896 1312
WIRE -848 1312 -848 1296
WIRE -848 1312 -880 1312
WIRE -336 1312 -352 1312
WIRE -304 1312 -304 1296
WIRE -304 1312 -336 1312
WIRE 160 1312 160 1296
WIRE 160 1312 64 1312
WIRE 688 1312 688 1296
WIRE 688 1312 576 1312
WIRE -1552 1328 -1616 1328
WIRE -800 1328 -800 1312
WIRE -688 1328 -688 1264
WIRE -688 1328 -800 1328
WIRE -256 1328 -256 1312
WIRE -144 1328 -144 1264
WIRE -144 1328 -256 1328
WIRE 208 1328 208 1312
WIRE 320 1328 320 1264
WIRE 320 1328 208 1328
WIRE 736 1328 736 1312
WIRE 848 1328 848 1264
WIRE 848 1328 736 1328
WIRE 1328 1328 1328 1312
WIRE 1328 1328 1216 1328
WIRE -1696 1344 -1696 1280
WIRE -1616 1344 -1616 1328
WIRE -1616 1344 -1696 1344
WIRE 1376 1344 1376 1328
WIRE 1488 1344 1488 1280
WIRE 1488 1344 1376 1344
WIRE 2000 1344 2000 1328
WIRE 2000 1344 1888 1344
WIRE 2720 1344 2720 1328
WIRE 2720 1344 2608 1344
WIRE 3344 1344 3344 1328
WIRE 3344 1344 3232 1344
WIRE 2048 1360 2048 1344
WIRE 2160 1360 2160 1296
WIRE 2160 1360 2048 1360
WIRE 2768 1360 2768 1344
WIRE 2880 1360 2880 1296
WIRE 2880 1360 2768 1360
WIRE 3392 1360 3392 1344
WIRE 3504 1360 3504 1296
WIRE 3504 1360 3392 1360
WIRE -1888 1408 -1888 1184
WIRE -1232 1408 -1888 1408
WIRE -1616 1424 -1616 1344
WIRE -800 1456 -800 1328
WIRE -256 1456 -256 1328
WIRE 208 1456 208 1328
WIRE 736 1456 736 1328
WIRE -1456 1472 -1616 1472
WIRE 1376 1472 1376 1344
WIRE 2048 1488 2048 1360
WIRE 2768 1488 2768 1360
WIRE 3392 1488 3392 1360
WIRE -1888 1504 -1888 1408
WIRE -1664 1504 -1888 1504
WIRE -640 1504 -800 1504
WIRE -96 1504 -256 1504
WIRE 368 1504 208 1504
WIRE 896 1504 736 1504
WIRE 1536 1520 1376 1520
WIRE -848 1536 -944 1536
WIRE -304 1536 -400 1536
WIRE 160 1536 96 1536
WIRE 592 1536 576 1536
WIRE 688 1536 592 1536
WIRE 2208 1536 2048 1536
WIRE 2928 1536 2768 1536
WIRE 3552 1536 3392 1536
WIRE 1232 1552 1216 1552
WIRE 1328 1552 1232 1552
WIRE 1904 1568 1888 1568
WIRE 2000 1568 1904 1568
WIRE 2624 1568 2608 1568
WIRE 2720 1568 2624 1568
WIRE 3248 1568 3232 1568
WIRE 3344 1568 3248 1568
WIRE -1616 1584 -1616 1520
WIRE -1456 1584 -1456 1472
WIRE -1456 1584 -1616 1584
WIRE -800 1584 -800 1552
WIRE -640 1584 -640 1504
WIRE -640 1584 -800 1584
WIRE -256 1584 -256 1552
WIRE -96 1584 -96 1504
WIRE -96 1584 -256 1584
WIRE 208 1584 208 1552
WIRE 368 1584 368 1504
WIRE 368 1584 208 1584
WIRE 736 1584 736 1552
WIRE 896 1584 896 1504
WIRE 896 1584 736 1584
WIRE 1376 1600 1376 1568
WIRE 1536 1600 1536 1520
WIRE 1536 1600 1376 1600
WIRE 2048 1616 2048 1584
WIRE 2208 1616 2208 1536
WIRE 2208 1616 2048 1616
WIRE 2768 1616 2768 1584
WIRE 2928 1616 2928 1536
WIRE 2928 1616 2768 1616
WIRE 3392 1616 3392 1584
WIRE 3552 1616 3552 1536
WIRE 3552 1616 3392 1616
WIRE -800 1664 -800 1584
WIRE -256 1664 -256 1584
WIRE -976 1680 -992 1680
WIRE -848 1680 -976 1680
WIRE -432 1680 -448 1680
WIRE -304 1680 -432 1680
WIRE 208 1680 208 1584
WIRE 736 1680 736 1584
WIRE 1376 1680 1376 1600
WIRE 2048 1680 2048 1616
WIRE 2768 1680 2768 1616
WIRE 3392 1680 3392 1616
WIRE 64 1696 48 1696
WIRE 160 1696 64 1696
WIRE 592 1696 544 1696
WIRE 688 1696 592 1696
WIRE 1232 1696 1200 1696
WIRE 1328 1696 1232 1696
WIRE 1872 1696 1856 1696
WIRE 2000 1696 1872 1696
WIRE 2640 1696 2608 1696
WIRE 2720 1696 2640 1696
WIRE 3232 1696 3216 1696
WIRE 3344 1696 3232 1696
WIRE -848 1728 -976 1728
WIRE -304 1728 -432 1728
WIRE 160 1744 64 1744
WIRE 560 1744 544 1744
WIRE 688 1744 560 1744
WIRE 1216 1744 1200 1744
WIRE 1328 1744 1216 1744
WIRE 1872 1744 1856 1744
WIRE 2000 1744 1872 1744
WIRE 2624 1744 2608 1744
WIRE 2720 1744 2624 1744
WIRE 3232 1744 3216 1744
WIRE 3344 1744 3232 1744
WIRE -1616 1920 -1616 1584
WIRE -800 1920 -800 1744
WIRE -800 1920 -1616 1920
WIRE -256 1920 -256 1744
WIRE -256 1920 -800 1920
WIRE 208 1920 208 1760
WIRE 208 1920 -256 1920
WIRE 736 1920 736 1760
WIRE 736 1920 208 1920
WIRE 1056 1920 736 1920
WIRE 1376 1920 1376 1760
WIRE 1376 1920 1056 1920
WIRE 2048 1920 2048 1760
WIRE 2048 1920 1376 1920
WIRE 2768 1920 2768 1760
WIRE 2768 1920 2048 1920
WIRE 3392 1920 3392 1760
WIRE 3392 1920 2768 1920
WIRE 1056 1984 1056 1920
WIRE 1056 1984 832 1984
WIRE 832 2064 832 1984
WIRE 1056 2096 1056 1984
WIRE 832 2224 832 2128
WIRE 1056 2224 1056 2176
WIRE 1056 2224 832 2224
WIRE 1056 2256 1056 2224
WIRE 1056 2304 1056 2256
WIRE -32 2768 -80 2768
WIRE 288 2768 240 2768
WIRE 592 2768 544 2768
WIRE 896 2768 848 2768
WIRE 1184 2768 1136 2768
WIRE 1488 2768 1440 2768
WIRE 1808 2768 1760 2768
WIRE 2128 2768 2080 2768
WIRE -32 2784 -32 2768
WIRE 288 2784 288 2768
WIRE 592 2784 592 2768
WIRE 896 2784 896 2768
WIRE 1184 2784 1184 2768
WIRE 1488 2784 1488 2768
WIRE 1808 2784 1808 2768
WIRE 2128 2784 2128 2768
WIRE -80 2864 -80 2768
WIRE -48 2864 -48 2848
WIRE -48 2864 -80 2864
WIRE 240 2864 240 2768
WIRE 272 2864 272 2848
WIRE 272 2864 240 2864
WIRE 544 2864 544 2768
WIRE 576 2864 576 2848
WIRE 576 2864 544 2864
WIRE 848 2864 848 2768
WIRE 880 2864 880 2848
WIRE 880 2864 848 2864
WIRE 1136 2864 1136 2768
WIRE 1168 2864 1168 2848
WIRE 1168 2864 1136 2864
WIRE 1440 2864 1440 2768
WIRE 1472 2864 1472 2848
WIRE 1472 2864 1440 2864
WIRE 1760 2864 1760 2768
WIRE 1792 2864 1792 2848
WIRE 1792 2864 1760 2864
WIRE 2080 2864 2080 2768
WIRE 2112 2864 2112 2848
WIRE 2112 2864 2080 2864
WIRE -48 2896 -288 2896
WIRE 272 2896 32 2896
WIRE 576 2896 336 2896
WIRE 880 2896 640 2896
WIRE 1168 2896 928 2896
WIRE 1472 2896 1232 2896
WIRE 1792 2896 1536 2896
WIRE 2096 2896 1840 2896
WIRE -288 3008 -288 2896
WIRE -256 3008 -288 3008
WIRE -16 3008 -16 2848
WIRE -16 3008 -96 3008
WIRE 32 3008 32 2896
WIRE 64 3008 32 3008
WIRE 304 3008 304 2848
WIRE 304 3008 224 3008
WIRE 336 3008 336 2896
WIRE 368 3008 336 3008
WIRE 608 3008 608 2848
WIRE 608 3008 528 3008
WIRE 640 3008 640 2896
WIRE 672 3008 640 3008
WIRE 912 3008 912 2848
WIRE 912 3008 832 3008
WIRE 928 3008 928 2896
WIRE 960 3008 928 3008
WIRE 1200 3008 1200 2848
WIRE 1200 3008 1120 3008
WIRE 1232 3008 1232 2896
WIRE 1264 3008 1232 3008
WIRE 1504 3008 1504 2848
WIRE 1504 3008 1424 3008
WIRE 1536 3008 1536 2896
WIRE 1584 3008 1536 3008
WIRE 1824 3008 1824 2848
WIRE 1824 3008 1744 3008
WIRE 1840 3008 1840 2896
WIRE 1872 3008 1840 3008
WIRE 2144 3008 2144 2848
WIRE 2144 3008 2032 3008
WIRE -256 3056 -400 3056
WIRE -48 3056 -48 2896
WIRE -48 3056 -80 3056
WIRE 64 3056 -48 3056
WIRE 272 3056 272 2896
WIRE 272 3056 240 3056
WIRE 368 3056 272 3056
WIRE 576 3056 576 2896
WIRE 576 3056 544 3056
WIRE 672 3056 576 3056
WIRE 880 3056 880 2896
WIRE 880 3056 848 3056
WIRE 960 3056 880 3056
WIRE 1168 3056 1168 2896
WIRE 1168 3056 1136 3056
WIRE 1264 3056 1168 3056
WIRE 1472 3056 1472 2896
WIRE 1472 3056 1440 3056
WIRE 1584 3056 1472 3056
WIRE 1792 3056 1792 2896
WIRE 1792 3056 1760 3056
WIRE 1872 3056 1792 3056
WIRE 2096 3056 2096 2896
WIRE 2096 3056 2048 3056
WIRE -400 3072 -400 3056
FLAG -1232 1200 vout1
IOPIN -1232 1200 Out
FLAG -1232 1408 vout2
IOPIN -1232 1408 Out
FLAG -2016 512 0
FLAG 64 1312 vout1
FLAG 576 1312 vout1
FLAG 96 1536 vout2
FLAG 592 1536 vout2
FLAG -336 1312 vout1
FLAG -400 1536 vout2
FLAG 1216 1328 vout1
FLAG 1232 1552 vout2
FLAG 1888 1344 vout1
FLAG 1904 1568 vout2
FLAG 2608 1344 vout1
FLAG 2624 1568 vout2
FLAG 3232 1344 vout1
FLAG 3248 1568 vout2
FLAG 1056 2304 0
FLAG -432 1728 D1
FLAG 64 1744 D2
FLAG 560 1744 D3
FLAG 1216 1744 D4
FLAG 1872 1744 D5
FLAG 2624 1744 D6
FLAG 3232 1744 D7
FLAG 1056 2256 GRND
FLAG -432 1680 GRND
FLAG 64 1696 GRND
FLAG 592 1696 GRND
FLAG 1232 1696 GRND
FLAG 1872 1696 GRND
FLAG 2640 1696 GRND
FLAG 3232 1696 GRND
FLAG -880 1312 vout1
FLAG -944 1536 vout2
FLAG -976 1728 D0
FLAG -976 1680 GRND
FLAG -32 2768 D0
FLAG 288 2768 D1
FLAG 592 2768 D2
FLAG 896 2768 D3
FLAG 1184 2768 D4
FLAG 1488 2768 D5
FLAG 1808 2768 D6
FLAG 2128 2768 D7
FLAG -400 3152 0
FLAG 1056 1984 VOUTF
IOPIN 1056 1984 Out
SYMBOL nmos4 -1680 880 R0
SYMATTR InstName M1
SYMATTR Value nnmos
SYMATTR Value2 l=300n w=3.4u
SYMBOL nmos4 -1680 1040 R0
SYMATTR InstName M2
SYMATTR Value nnmos
SYMATTR Value2 l=300n w=1.14u
SYMBOL nmos4 -1504 1232 M0
SYMATTR InstName M3
SYMATTR Value nnmos
SYMATTR Value2 l=300n w=3.4u
SYMBOL nmos4 -1664 1424 R0
SYMATTR InstName M4
SYMATTR Value nnmos
SYMATTR Value2 l=300n w=3.4u
SYMBOL voltage -1632 512 R0
WINDOW 123 0 0 Left 0
WINDOW 39 0 0 Left 0
SYMATTR InstName V1
SYMATTR Value -1.2
SYMBOL current -1632 736 R0
WINDOW 123 0 0 Left 0
WINDOW 39 0 0 Left 0
SYMATTR InstName I1
SYMATTR Value 50µ
SYMBOL nmos4 -304 1216 R0
WINDOW 0 77 19 Left 2
SYMATTR InstName M5
SYMATTR Value nnmos
SYMATTR Value2 l=300n w=6.75u
SYMBOL nmos4 -304 1456 R0
SYMATTR InstName M6
SYMATTR Value nnmos
SYMATTR Value2 l=300n w=6.75u
SYMBOL nmos4 160 1216 R0
WINDOW 0 77 19 Left 2
SYMATTR InstName M7
SYMATTR Value nnmos
SYMATTR Value2 l=300n w=13.5u
SYMBOL nmos4 160 1456 R0
SYMATTR InstName M8
SYMATTR Value nnmos
SYMATTR Value2 l=300n w=13.5u
SYMBOL nmos4 688 1216 R0
WINDOW 0 77 19 Left 2
SYMATTR InstName M9
SYMATTR Value nnmos
SYMATTR Value2 l=300n w=28u
SYMBOL nmos4 688 1456 R0
SYMATTR InstName M10
SYMATTR Value nnmos
SYMATTR Value2 l=300n w=28u
SYMBOL nmos4 1328 1232 R0
WINDOW 0 77 19 Left 2
SYMATTR InstName M11
SYMATTR Value nnmos
SYMATTR Value2 l=300n w=55u
SYMBOL nmos4 1328 1472 R0
SYMATTR InstName M12
SYMATTR Value nnmos
SYMATTR Value2 l=300n w=55u
SYMBOL nmos4 2000 1248 R0
WINDOW 0 77 19 Left 2
SYMATTR InstName M13
SYMATTR Value nnmos
SYMATTR Value2 l=300n w=110u
SYMBOL nmos4 2000 1488 R0
SYMATTR InstName M14
SYMATTR Value nnmos
SYMATTR Value2 l=300n w=110u
SYMBOL nmos4 2720 1248 R0
WINDOW 0 77 19 Left 2
SYMATTR InstName M15
SYMATTR Value nnmos
SYMATTR Value2 l=300n w=221u
SYMBOL nmos4 2720 1488 R0
SYMATTR InstName M16
SYMATTR Value nnmos
SYMATTR Value2 l=300n w=221u
SYMBOL nmos4 3344 1248 R0
WINDOW 0 77 19 Left 2
SYMATTR InstName M17
SYMATTR Value nnmos
SYMATTR Value2 l=300n w=440u
SYMBOL nmos4 3344 1488 R0
SYMATTR InstName M18
SYMATTR Value nnmos
SYMATTR Value2 l=300n w=440u
SYMBOL sw 208 1664 R0
SYMATTR InstName S3
SYMBOL sw 736 1664 R0
SYMATTR InstName S4
SYMBOL sw 1376 1664 R0
SYMATTR InstName S5
SYMBOL sw 2048 1664 R0
SYMATTR InstName S6
SYMBOL sw 2768 1664 R0
SYMATTR InstName S7
SYMBOL sw 3392 1664 R0
SYMATTR InstName S8
SYMBOL res 1040 2080 R0
SYMATTR InstName R1
SYMATTR Value 50
SYMBOL sw -256 1648 R0
SYMATTR InstName S2
SYMBOL nmos4 -848 1216 R0
WINDOW 0 77 19 Left 2
SYMATTR InstName M19
SYMATTR Value nnmos
SYMATTR Value2 l=300n w=3.4u
SYMBOL nmos4 -848 1456 R0
SYMATTR InstName M20
SYMATTR Value nnmos
SYMATTR Value2 l=300n w=3.4u
SYMBOL sw -800 1648 R0
SYMATTR InstName S9
SYMBOL Digital\\dflop -176 2960 R0
SYMATTR InstName A1
SYMBOL Digital\\dflop 144 2960 R0
SYMATTR InstName A2
SYMBOL Digital\\dflop 448 2960 R0
SYMATTR InstName A3
SYMBOL Digital\\dflop 752 2960 R0
SYMATTR InstName A4
SYMBOL Digital\\dflop 1040 2960 R0
SYMATTR InstName A5
SYMBOL Digital\\dflop 1344 2960 R0
SYMATTR InstName A6
SYMBOL Digital\\dflop 1664 2960 R0
SYMATTR InstName A7
SYMBOL Digital\\dflop 1952 2960 R0
SYMATTR InstName A8
SYMBOL voltage -400 3056 R0
WINDOW 123 0 0 Left 0
WINDOW 39 0 0 Left 0
SYMATTR InstName V2
SYMATTR Value PULSE(0 1 0 1n 1n 10m 20m)
SYMBOL opamp -96 2816 R270
SYMATTR InstName U2
SYMBOL opamp 224 2816 R270
SYMATTR InstName U10
SYMBOL opamp 528 2816 R270
SYMATTR InstName U11
SYMBOL opamp 832 2816 R270
SYMATTR InstName U12
SYMBOL opamp 1120 2816 R270
SYMATTR InstName U13
SYMBOL opamp 1424 2816 R270
SYMATTR InstName U14
SYMBOL opamp 1744 2816 R270
SYMATTR InstName U15
SYMBOL opamp 2064 2816 R270
SYMATTR InstName U16
SYMBOL cap 816 2064 R0
SYMATTR InstName C1
SYMATTR Value 1µ
TEXT -1664 2200 Left 2 !.include C:\\Program Files\\LTC\\LTspiceXVII\\lib\\sym\\65nm_cmos.txt
TEXT -1656 2240 Left 2 !.tran 0 20 1.7000057
TEXT 56 0 Left 2 ;AYUSH SAHOO 19IE10011
TEXT 72 80 Left 2 ;ARPAN DEB 19EE10071
TEXT -1656 2288 Left 2 !.model SW SW(Ron=1 Roff=1Meg Vt=0.5 Vh=0)
TEXT -1648 2360 Left 2 !.inc opamp.sub
TEXT -1672 2424 Left 2 !;noise V(VOUTF) V2 dec 1000 1 10000k
